<?xml version="1.0" encoding="UTF-8"?>

<!-- generated on 2022-07-19 22:39:35 by Eclipse SUMO netedit Version v1_13_0+1391-e3705e540b5
<configuration xmlns:xsi="http://www.w3.org/2001/XMLSchema-instance" xsi:noNamespaceSchemaLocation="http://sumo.dlr.de/xsd/netconvertConfiguration.xsd">

    <input>
        <sumo-net-file value="/home/mtl/Haojie/MCity-AR/maps/Mcity/mcity_whole/mcity_sumo_new.net.xml"/>
    </input>

    <output>
        <output-file value="/home/mtl/Haojie/MCity-AR/maps/Mcity/mcity_whole/mcity_sumo_new.net.xml"/>
    </output>

    <processing>
        <geometry.min-radius.fix.railways value="false"/>
        <geometry.max-grade.fix value="false"/>
        <offset.disable-normalization value="true"/>
        <lefthand value="false"/>
    </processing>

    <junctions>
        <no-turnarounds value="true"/>
        <junctions.corner-detail value="0"/>
        <junctions.limit-turn-speed value="-1"/>
        <rectangular-lane-cut value="false"/>
    </junctions>

    <pedestrian>
        <walkingareas value="false"/>
    </pedestrian>

</configuration>
-->

<net version="1.9" xmlns:xsi="http://www.w3.org/2001/XMLSchema-instance" xsi:noNamespaceSchemaLocation="http://sumo.dlr.de/xsd/net_file.xsd">

    <location netOffset="102.89,281.25" convBoundary="0.00,0.00,218.52,388.73" origBoundary="-102.89,-281.25,115.63,107.48" projParameter="!"/>

    <edge id=":NODE_1_0" function="internal">
        <lane id=":NODE_1_0_0" index="0" speed="6.00" length="36.76" width="5.00" shape="140.66,72.43,270.18 138.58,69.29,270.18 135.91,66.41,270.10 131.90,62.59,269.99 124.45,56.81,269.79 113.56,47.87,269.49"/>
        <lane id=":NODE_1_0_1" index="1" speed="7.00" length="42.14" width="5.00" shape="144.46,72.27,270.18 144.43,69.85,270.18 143.75,67.48,270.15 142.41,64.73,270.07 140.58,61.85,269.99 136.18,57.80,269.86 129.00,53.73,269.71 120.78,50.10,269.58 113.56,47.87,269.49"/>
    </edge>
    <edge id=":NODE_1_2" function="internal">
        <lane id=":NODE_1_2_0" index="0" speed="6.00" length="24.62" width="5.00" shape="136.38,46.11,269.52 131.12,49.81,269.61 126.15,51.08,269.63 119.81,50.11,269.58 113.56,47.87,269.49"/>
    </edge>
    <edge id=":NODE_10_0" function="internal">
        <lane id=":NODE_10_0_0" index="0" speed="6.00" length="21.20" width="4.38" shape="115.62,265.75,276.06 114.76,259.86,275.66 112.71,255.08,275.30 109.49,251.39,274.97 105.08,248.81,274.62"/>
    </edge>
    <edge id=":NODE_10_1" function="internal">
        <lane id=":NODE_10_1_0" index="0" speed="7.00" length="29.46" width="3.65" shape="115.62,265.75,276.06 112.86,236.47,274.33"/>
    </edge>
    <edge id=":NODE_10_2" function="internal">
        <lane id=":NODE_10_2_0" index="0" speed="5.00" length="24.89" width="4.38" shape="125.77,262.61,275.02 121.46,259.51,274.94 115.62,255.34,274.82 109.69,251.36,274.71 105.08,248.81,274.62"/>
    </edge>
    <edge id=":NODE_10_3" function="internal">
        <lane id=":NODE_10_3_0" index="0" speed="6.00" length="29.75" width="3.65" shape="125.77,262.61,275.02 121.39,257.98,274.87 117.27,251.06,274.69 114.17,243.37,274.49 112.86,236.47,274.33"/>
    </edge>
    <edge id=":NODE_10_4" function="internal">
        <lane id=":NODE_10_4_0" index="0" speed="6.00" length="25.72" width="3.27" shape="119.46,236.28,274.34 120.17,244.58,274.54 121.78,251.26,274.70 124.29,256.32,274.83 127.71,259.78,274.94"/>
    </edge>
    <edge id=":NODE_10_5" function="internal">
        <lane id=":NODE_10_5_0" index="0" speed="7.00" length="29.47" width="3.46" shape="119.46,236.28,274.34 119.88,265.69,276.15"/>
    </edge>
    <edge id=":NODE_10_6" function="internal">
        <lane id=":NODE_10_6_0" index="0" speed="5.00" length="21.49" width="4.38" shape="116.44,236.37,274.34 115.92,243.62,274.44 113.86,248.11,274.50 110.24,249.84,274.55 105.08,248.81,274.62"/>
    </edge>
    <edge id=":NODE_10_7" function="internal">
        <lane id=":NODE_10_7_0" index="0" speed="6.00" length="12.92" width="3.65" shape="106.71,244.81,274.76 109.52,245.25,274.67 111.48,244.01,274.59 112.59,241.08,274.48 112.86,236.47,274.33"/>
    </edge>
    <edge id=":NODE_10_8" function="internal">
        <lane id=":NODE_10_8_0" index="0" speed="5.00" length="25.81" width="3.27" shape="106.71,244.81,274.76 111.37,247.53,274.80 117.41,251.93,274.85 123.34,256.51,274.90 127.71,259.78,274.94"/>
    </edge>
    <edge id=":NODE_10_9" function="internal">
        <lane id=":NODE_10_9_0" index="0" speed="6.00" length="25.73" width="3.46" shape="106.71,244.81,274.76 111.49,248.06,275.07 115.69,253.27,275.43 118.69,259.47,275.81 119.88,265.69,276.15"/>
    </edge>
    <edge id=":NODE_11_0" function="internal">
        <lane id=":NODE_11_0_0" index="0" speed="4.00" length="5.11" width="2.90" shape="115.29,215.44,273.83 115.56,210.34,273.73"/>
    </edge>
    <edge id=":NODE_11_1" function="internal">
        <lane id=":NODE_11_1_0" index="0" speed="4.00" length="4.91" width="2.90" shape="115.29,215.44,273.83 115.59,210.55,273.74"/>
    </edge>
    <edge id=":NODE_11_15" function="internal">
        <lane id=":NODE_11_15_0" index="0" speed="4.00" length="29.81" width="2.90" shape="115.56,210.34,273.73 115.93,203.48,273.60 118.58,194.89,273.43 123.24,189.65,273.29 129.92,187.78,273.16"/>
    </edge>
    <edge id=":NODE_11_16" function="internal">
        <lane id=":NODE_11_16_0" index="0" speed="4.00" length="27.94" width="2.90" shape="115.59,210.55,273.74 115.95,204.49,273.63 118.62,196.63,273.47 123.30,191.86,273.35 129.98,190.18,273.22"/>
    </edge>
    <edge id=":NODE_11_2" function="internal">
        <lane id=":NODE_11_2_0" index="0" speed="5.00" length="19.83" width="3.65" shape="130.28,202.22,273.53 125.15,203.16,273.61 121.54,205.66,273.68 119.45,209.72,273.74 118.87,215.34,273.83"/>
    </edge>
    <edge id=":NODE_11_3" function="internal">
        <lane id=":NODE_11_3_0" index="0" speed="4.00" length="25.43" width="3.83" shape="130.28,202.22,273.53 104.85,202.08,273.50"/>
    </edge>
    <edge id=":NODE_11_4" function="internal">
        <lane id=":NODE_11_4_0" index="0" speed="4.50" length="16.82" width="3.46" shape="130.22,199.80,273.47 121.89,198.45,272.98 115.81,193.80,272.54 115.51,193.17,272.50"/>
    </edge>
    <edge id=":NODE_11_17" function="internal">
        <lane id=":NODE_11_17_0" index="0" speed="4.50" length="19.49" width="3.46" shape="115.51,193.17,272.50 111.98,185.86,272.03 110.40,174.63,271.37"/>
    </edge>
    <edge id=":NODE_11_5" function="internal">
        <lane id=":NODE_11_5_0" index="0" speed="4.50" length="20.91" width="2.90" shape="117.25,174.39,272.65 118.27,180.36,272.80 120.73,184.58,272.92 124.61,187.06,273.03 129.92,187.78,273.16"/>
    </edge>
    <edge id=":NODE_11_6" function="internal">
        <lane id=":NODE_11_6_0" index="0" speed="4.50" length="22.86" width="2.90" shape="117.25,174.39,272.65 118.32,181.38,272.82 120.79,186.34,272.96 124.68,189.27,273.09 129.98,190.18,273.22"/>
    </edge>
    <edge id=":NODE_11_7" function="internal">
        <lane id=":NODE_11_7_0" index="0" speed="6.00" length="41.13" width="3.65" shape="114.15,174.50,272.65 118.87,215.34,273.83"/>
    </edge>
    <edge id=":NODE_11_8" function="internal">
        <lane id=":NODE_11_8_0" index="0" speed="5.00" length="13.59" width="3.83" shape="114.15,174.50,272.65 113.93,186.62,272.98 113.66,188.05,273.02"/>
    </edge>
    <edge id=":NODE_11_18" function="internal">
        <lane id=":NODE_11_18_0" index="0" speed="5.00" length="18.05" width="3.83" shape="113.66,188.05,273.02 112.30,195.26,273.21 109.28,200.41,273.37 104.85,202.08,273.50"/>
    </edge>
    <edge id=":NODE_11_9" function="internal">
        <lane id=":NODE_11_9_0" index="0" speed="5.50" length="18.39" width="3.46" shape="105.01,190.78,271.84 107.58,189.66,271.77 109.33,186.60,271.68 110.27,181.59,271.55 110.40,174.63,271.37"/>
    </edge>
    <edge id=":NODE_11_10" function="internal">
        <lane id=":NODE_11_10_0" index="0" speed="4.00" length="25.12" width="2.90" shape="105.01,190.78,271.84 129.92,187.78,273.16"/>
    </edge>
    <edge id=":NODE_11_11" function="internal">
        <lane id=":NODE_11_11_0" index="0" speed="4.00" length="25.01" width="2.90" shape="105.01,190.78,271.84 129.98,190.18,273.22"/>
    </edge>
    <edge id=":NODE_11_12" function="internal">
        <lane id=":NODE_11_12_0" index="0" speed="6.00" length="14.73" width="3.65" shape="105.01,190.78,271.84 110.81,192.07,272.22 115.05,196.60,272.61 115.89,199.02,272.77"/>
    </edge>
    <edge id=":NODE_11_19" function="internal">
        <lane id=":NODE_11_19_0" index="0" speed="6.00" length="16.73" width="3.65" shape="115.89,199.02,272.77 117.74,204.35,273.13 118.87,215.34,273.83"/>
    </edge>
    <edge id=":NODE_11_13" function="internal">
        <lane id=":NODE_11_13_0" index="0" speed="6.00" length="16.94" width="3.83" shape="112.27,215.53,273.83 111.66,209.68,273.72 110.23,205.49,273.63 107.95,202.96,273.56 104.85,202.08,273.50"/>
    </edge>
    <edge id=":NODE_11_14" function="internal">
        <lane id=":NODE_11_14_0" index="0" speed="6.50" length="41.01" width="3.46" shape="112.27,215.53,273.83 110.40,174.63,271.37"/>
    </edge>
    <edge id=":NODE_12_0" function="internal">
        <lane id=":NODE_12_0_0" index="0" speed="6.00" length="13.68" width="3.65" shape="109.37,145.36,271.35 108.71,141.71,271.35 107.02,139.14,271.36 104.29,137.65,271.36 100.53,137.25,271.37"/>
    </edge>
    <edge id=":NODE_12_1" function="internal">
        <lane id=":NODE_12_1_0" index="0" speed="6.00" length="23.80" width="3.46" shape="109.37,145.36,271.35 108.19,121.59,271.24"/>
    </edge>
    <edge id=":NODE_12_2" function="internal">
        <lane id=":NODE_12_2_0" index="0" speed="4.50" length="23.91" width="3.65" shape="114.94,121.16,271.23 115.93,145.05,271.33"/>
    </edge>
    <edge id=":NODE_12_3" function="internal">
        <lane id=":NODE_12_3_0" index="0" speed="5.00" length="7.41" width="3.65" shape="111.97,121.35,271.23 111.44,128.16,271.28 111.22,128.69,271.28"/>
    </edge>
    <edge id=":NODE_12_6" function="internal">
        <lane id=":NODE_12_6_0" index="0" speed="5.00" length="14.81" width="3.65" shape="111.22,128.69,271.28 109.36,133.08,271.31 105.72,136.11,271.34 100.53,137.25,271.37"/>
    </edge>
    <edge id=":NODE_12_4" function="internal">
        <lane id=":NODE_12_4_0" index="0" speed="6.00" length="15.79" width="3.46" shape="100.39,133.01,271.36 104.07,132.19,271.33 106.60,130.02,271.30 107.97,126.48,271.28 108.19,121.59,271.24"/>
    </edge>
    <edge id=":NODE_12_5" function="internal">
        <lane id=":NODE_12_5_0" index="0" speed="5.50" length="22.29" width="3.65" shape="100.39,133.01,271.36 106.97,133.58,271.35 111.75,135.77,271.34 114.74,139.60,271.34 115.93,145.05,271.33"/>
    </edge>
    <edge id=":NODE_13_0" function="internal">
        <lane id=":NODE_13_0_0" index="0" speed="5.50" length="21.31" width="4.20" shape="74.58,278.60,274.43 70.81,275.88,274.19 65.52,273.29,273.88 60.00,271.01,273.56 55.57,269.24,273.31"/>
    </edge>
    <edge id=":NODE_13_1" function="internal">
        <lane id=":NODE_13_1_0" index="0" speed="5.00" length="12.19" width="4.20" shape="65.98,265.51,273.69 63.80,268.14,273.59 61.33,269.64,273.50 58.59,270.01,273.41 55.57,269.24,273.31"/>
    </edge>
    <edge id=":NODE_14_0" function="internal">
        <lane id=":NODE_14_0_0" index="0" speed="5.50" length="15.99" width="3.27" shape="51.52,267.06,273.04 48.27,264.90,272.95 44.74,262.85,272.85 41.14,260.90,272.75 37.69,259.06,272.66"/>
    </edge>
    <edge id=":NODE_14_1" function="internal">
        <lane id=":NODE_14_1_0" index="0" speed="5.00" length="15.91" width="4.20" shape="51.52,267.06,273.04 48.31,263.97,272.92 46.87,260.66,272.82 47.21,257.14,272.72 49.32,253.39,272.60"/>
    </edge>
    <edge id=":NODE_14_2" function="internal">
        <lane id=":NODE_14_2_0" index="0" speed="5.50" length="12.13" width="4.20" shape="38.97,256.69,272.62 41.53,257.78,272.62 44.11,257.59,272.61 46.71,256.13,272.61 49.32,253.39,272.60"/>
    </edge>
    <edge id=":NODE_15_0" function="internal">
        <lane id=":NODE_15_0_0" index="0" speed="5.00" length="14.55" width="3.65" shape="68.71,234.05,272.44 64.73,233.09,272.47 62.21,234.03,272.49 61.14,236.86,272.51 61.52,241.59,272.54"/>
    </edge>
    <edge id=":NODE_15_1" function="internal">
        <lane id=":NODE_15_1_0" index="0" speed="5.00" length="14.52" width="4.38" shape="60.18,220.82,272.20 60.87,223.51,272.23 62.78,225.99,272.28 65.88,228.25,272.33 70.19,230.31,272.39"/>
    </edge>
    <edge id=":NODE_15_2" function="internal">
        <lane id=":NODE_15_2_0" index="0" speed="5.00" length="20.83" width="3.65" shape="60.18,220.82,272.20 60.32,225.48,272.27 60.55,231.24,272.37 60.93,236.98,272.46 61.52,241.59,272.54"/>
    </edge>
    <edge id=":NODE_16_0" function="internal">
        <lane id=":NODE_16_0_0" index="0" speed="5.00" length="7.00" width="4.20" shape="62.29,244.45,272.56 62.85,246.45,272.73 63.26,247.82,272.84 63.84,249.11,272.96 64.94,250.85,273.12"/>
    </edge>
    <edge id=":NODE_16_1" function="internal">
        <lane id=":NODE_16_1_0" index="0" speed="6.50" length="5.16" width="4.20" shape="60.56,248.72,272.59 61.84,248.73,272.72 63.00,249.09,272.85 64.04,249.79,272.98 64.94,250.85,273.12"/>
    </edge>
    <edge id=":NODE_17_0" function="internal">
        <lane id=":NODE_17_0_0" index="0" speed="5.00" length="28.56" width="3.83" shape="56.00,217.01,272.11 56.31,206.60,272.01 58.02,199.08,271.94 61.15,194.47,271.89 65.70,192.75,271.84"/>
    </edge>
    <edge id=":NODE_17_1" function="internal">
        <lane id=":NODE_17_1_0" index="0" speed="5.00" length="17.36" width="3.65" shape="66.18,202.36,271.92 63.31,203.31,271.95 61.33,206.05,271.99 60.24,210.57,272.04 60.04,216.87,272.11"/>
    </edge>
    <edge id=":NODE_17_2" function="internal">
        <lane id=":NODE_17_2_0" index="0" speed="5.00" length="21.50" width="3.46" shape="66.18,202.36,271.92 61.46,202.90,271.92 55.58,204.04,271.92 49.70,205.21,271.92 44.98,205.86,271.92"/>
    </edge>
    <edge id=":NODE_17_3" function="internal">
        <lane id=":NODE_17_3_0" index="0" speed="5.00" length="21.39" width="3.46" shape="66.18,202.36,271.92 44.80,202.62,271.92"/>
    </edge>
    <edge id=":NODE_17_4" function="internal">
        <lane id=":NODE_17_4_0" index="0" speed="5.50" length="25.70" width="4.01" shape="66.02,199.12,271.91 59.99,198.19,271.86 55.57,194.96,271.82 52.76,189.42,271.77 51.56,181.59,271.71"/>
    </edge>
    <edge id=":NODE_17_5" function="internal">
        <lane id=":NODE_17_5_0" index="0" speed="5.50" length="15.00" width="3.83" shape="58.68,181.28,271.71 59.31,186.42,271.75 60.69,190.05,271.79 62.82,192.16,271.81 65.70,192.75,271.84"/>
    </edge>
    <edge id=":NODE_17_6" function="internal">
        <lane id=":NODE_17_6_0" index="0" speed="5.50" length="35.62" width="3.65" shape="58.68,181.28,271.71 60.04,216.87,272.11"/>
    </edge>
    <edge id=":NODE_17_7" function="internal">
        <lane id=":NODE_17_7_0" index="0" speed="5.50" length="29.28" width="3.46" shape="55.38,181.42,271.71 55.17,191.87,271.78 53.37,199.42,271.84 49.97,204.09,271.88 44.98,205.86,271.92"/>
    </edge>
    <edge id=":NODE_17_8" function="internal">
        <lane id=":NODE_17_8_0" index="0" speed="5.50" length="26.36" width="3.46" shape="55.38,181.42,271.71 55.10,190.40,271.78 53.24,196.93,271.83 49.81,201.00,271.88 44.80,202.62,271.92"/>
    </edge>
    <edge id=":NODE_17_9" function="internal">
        <lane id=":NODE_17_9_0" index="0" speed="5.50" length="13.27" width="4.01" shape="44.11,190.44,271.81 47.51,189.85,271.78 49.89,188.18,271.76 51.24,185.43,271.74 51.56,181.59,271.71"/>
    </edge>
    <edge id=":NODE_17_10" function="internal">
        <lane id=":NODE_17_10_0" index="0" speed="5.00" length="21.42" width="3.83" shape="44.30,193.84,271.85 65.70,192.75,271.84"/>
    </edge>
    <edge id=":NODE_17_11" function="internal">
        <lane id=":NODE_17_11_0" index="0" speed="5.00" length="28.25" width="3.65" shape="44.49,197.25,271.89 51.04,198.41,271.94 55.81,202.07,271.99 58.81,208.22,272.04 60.04,216.87,272.11"/>
    </edge>
    <edge id=":NODE_17_12" function="internal">
        <lane id=":NODE_17_12_0" index="0" speed="5.00" length="15.15" width="3.46" shape="52.35,217.14,272.11 51.74,212.05,272.05 50.31,208.48,272.00 48.06,206.42,271.96 44.98,205.86,271.92"/>
    </edge>
    <edge id=":NODE_17_13" function="internal">
        <lane id=":NODE_17_13_0" index="0" speed="5.50" length="35.56" width="4.01" shape="52.35,217.14,272.11 51.56,181.59,271.71"/>
    </edge>
    <edge id=":NODE_18_0" function="internal">
        <lane id=":NODE_18_0_0" index="0" speed="5.50" length="12.92" width="3.46" shape="50.07,147.84,271.43 49.46,143.93,271.43 48.02,141.19,271.43 45.77,139.59,271.43 42.69,139.16,271.43"/>
    </edge>
    <edge id=":NODE_18_1" function="internal">
        <lane id=":NODE_18_1_0" index="0" speed="5.50" length="22.92" width="3.09" shape="50.07,147.84,271.43 50.74,124.93,271.32"/>
    </edge>
    <edge id=":NODE_18_2" function="internal">
        <lane id=":NODE_18_2_0" index="0" speed="6.00" length="6.43" width="3.65" shape="50.07,147.84,271.43 50.81,142.06,271.37 51.14,141.55,271.37"/>
    </edge>
    <edge id=":NODE_18_15" function="internal">
        <lane id=":NODE_18_15_0" index="0" speed="6.00" length="16.96" width="3.65" shape="51.14,141.55,271.37 53.60,137.85,271.32 58.46,135.22,271.27 65.37,134.16,271.20"/>
    </edge>
    <edge id=":NODE_18_3" function="internal">
        <lane id=":NODE_18_3_0" index="0" speed="6.00" length="14.08" width="4.01" shape="65.52,138.40,271.21 61.76,139.08,271.27 59.13,140.82,271.32 57.63,143.64,271.37 57.25,147.53,271.43"/>
    </edge>
    <edge id=":NODE_18_4" function="internal">
        <lane id=":NODE_18_4_0" index="0" speed="6.00" length="17.07" width="4.01" shape="65.52,138.40,271.21 60.18,139.13,271.29 56.44,140.92,271.34 54.28,143.77,271.39 53.71,147.68,271.44"/>
    </edge>
    <edge id=":NODE_18_5" function="internal">
        <lane id=":NODE_18_5_0" index="0" speed="5.50" length="22.84" width="3.46" shape="65.52,138.40,271.21 42.69,139.16,271.43"/>
    </edge>
    <edge id=":NODE_18_6" function="internal">
        <lane id=":NODE_18_6_0" index="0" speed="5.50" length="6.90" width="3.09" shape="65.52,138.40,271.21 59.36,137.73,271.24 58.74,137.39,271.25"/>
    </edge>
    <edge id=":NODE_18_16" function="internal">
        <lane id=":NODE_18_16_0" index="0" speed="5.50" length="15.77" width="3.09" shape="58.74,137.39,271.25 54.85,135.26,271.27 51.97,130.99,271.29 50.74,124.93,271.32"/>
    </edge>
    <edge id=":NODE_18_7" function="internal">
        <lane id=":NODE_18_7_0" index="0" speed="6.00" length="15.12" width="3.65" shape="56.44,124.59,271.27 56.91,128.90,271.25 58.55,131.92,271.23 61.37,133.68,271.22 65.37,134.16,271.20"/>
    </edge>
    <edge id=":NODE_18_8" function="internal">
        <lane id=":NODE_18_8_0" index="0" speed="6.00" length="22.95" width="4.01" shape="56.44,124.59,271.27 57.25,147.53,271.43"/>
    </edge>
    <edge id=":NODE_18_9" function="internal">
        <lane id=":NODE_18_9_0" index="0" speed="6.00" length="23.27" width="4.01" shape="56.44,124.59,271.27 55.93,129.61,271.31 54.93,136.14,271.35 54.01,142.67,271.40 53.71,147.68,271.44"/>
    </edge>
    <edge id=":NODE_18_10" function="internal">
        <lane id=":NODE_18_10_0" index="0" speed="5.50" length="11.08" width="3.46" shape="56.44,124.59,271.27 55.45,130.76,271.31 53.01,134.94,271.35"/>
    </edge>
    <edge id=":NODE_18_17" function="internal">
        <lane id=":NODE_18_17_0" index="0" speed="5.50" length="11.44" width="3.46" shape="53.01,134.94,271.35 52.83,135.24,271.35 48.58,138.04,271.39 42.69,139.16,271.43"/>
    </edge>
    <edge id=":NODE_18_11" function="internal">
        <lane id=":NODE_18_11_0" index="0" speed="5.00" length="15.50" width="3.09" shape="42.55,135.71,271.43 46.37,134.93,271.40 49.00,132.88,271.38 50.46,129.54,271.35 50.74,124.93,271.32"/>
    </edge>
    <edge id=":NODE_18_12" function="internal">
        <lane id=":NODE_18_12_0" index="0" speed="5.50" length="22.87" width="3.65" shape="42.55,135.71,271.43 65.37,134.16,271.20"/>
    </edge>
    <edge id=":NODE_18_13" function="internal">
        <lane id=":NODE_18_13_0" index="0" speed="5.50" length="6.26" width="4.01" shape="42.55,135.71,271.43 48.79,136.28,271.43"/>
    </edge>
    <edge id=":NODE_18_14" function="internal">
        <lane id=":NODE_18_14_0" index="0" speed="5.50" length="4.69" width="4.01" shape="42.55,135.71,271.43 47.20,136.33,271.43"/>
    </edge>
    <edge id=":NODE_18_18" function="internal">
        <lane id=":NODE_18_18_0" index="0" speed="5.50" length="15.16" width="4.01" shape="48.79,136.28,271.43 53.32,138.45,271.43 56.14,142.19,271.43 57.25,147.53,271.43"/>
    </edge>
    <edge id=":NODE_18_19" function="internal">
        <lane id=":NODE_18_19_0" index="0" speed="5.50" length="13.86" width="4.01" shape="47.20,136.33,271.43 50.61,138.54,271.43 52.78,142.32,271.44 53.71,147.68,271.44"/>
    </edge>
    <edge id=":NODE_19_0" function="internal">
        <lane id=":NODE_19_0_0" index="0" speed="5.00" length="22.25" width="3.09" shape="46.48,100.33,270.13 43.48,95.60,269.91 39.60,91.91,269.70 34.86,89.24,269.48 29.25,87.61,269.25"/>
    </edge>
    <edge id=":NODE_19_1" function="internal">
        <lane id=":NODE_19_1_0" index="0" speed="5.00" length="19.74" width="4.38" shape="46.48,100.33,270.13 44.29,96.42,269.96 41.39,91.90,269.75 38.35,87.46,269.54 35.75,83.80,269.36"/>
    </edge>
    <edge id=":NODE_19_2" function="internal">
        <lane id=":NODE_19_2_0" index="0" speed="5.00" length="16.89" width="3.09" shape="46.04,89.27,270.06 42.03,88.74,269.86 37.64,88.43,269.65 33.26,88.12,269.44 29.25,87.61,269.25"/>
    </edge>
    <edge id=":NODE_19_3" function="internal">
        <lane id=":NODE_19_3_0" index="0" speed="5.00" length="12.05" width="4.38" shape="46.04,89.27,270.06 42.77,88.59,269.86 40.15,87.70,269.70 37.90,86.23,269.55 35.75,83.80,269.36"/>
    </edge>
    <edge id=":NODE_2_0" function="internal">
        <lane id=":NODE_2_0_0" index="0" speed="6.50" length="73.53" width="4.20" shape="72.53,3.77,266.44 85.34,5.29,266.82 109.05,8.10,267.54 132.72,11.06,268.25 145.44,13.01,268.63"/>
    </edge>
    <edge id=":NODE_2_1" function="internal">
        <lane id=":NODE_2_1_0" index="0" speed="5.50" length="56.19" width="5.00" shape="72.53,3.77,266.44 82.60,5.64,266.76 100.20,9.34,267.31 117.62,13.50,267.87 127.12,16.72,268.18"/>
    </edge>
    <edge id=":NODE_2_2" function="internal">
        <lane id=":NODE_2_2_0" index="0" speed="7.00" length="39.82" width="4.20" shape="107.31,16.12,267.55 114.37,11.90,267.77 123.08,9.98,268.02 133.44,10.35,268.30 145.44,13.01,268.63"/>
    </edge>
    <edge id=":NODE_2_3" function="internal">
        <lane id=":NODE_2_3_0" index="0" speed="6.00" length="21.73" width="5.00" shape="107.31,16.12,267.55 111.94,13.24,267.71 116.78,12.39,267.85 121.84,13.54,268.00 127.12,16.72,268.18"/>
    </edge>
    <edge id=":NODE_20_0" function="internal">
        <lane id=":NODE_20_0_0" index="0" speed="5.00" length="22.28" width="3.09" shape="30.63,72.76,268.71 29.65,50.51,268.06"/>
    </edge>
    <edge id=":NODE_20_1" function="internal">
        <lane id=":NODE_20_1_0" index="0" speed="5.00" length="17.33" width="4.38" shape="30.63,72.76,268.71 30.55,68.48,268.61 31.35,64.37,268.50 33.03,60.42,268.39 35.59,56.64,268.27"/>
    </edge>
    <edge id=":NODE_20_2" function="internal">
        <lane id=":NODE_20_2_0" index="0" speed="5.00" length="22.74" width="3.09" shape="24.61,71.61,268.67 27.81,67.93,268.54 29.72,63.18,268.40 30.33,57.38,268.25 29.65,50.51,268.06"/>
    </edge>
    <edge id=":NODE_20_3" function="internal">
        <lane id=":NODE_20_3_0" index="0" speed="5.00" length="18.61" width="4.38" shape="24.61,71.61,268.67 27.51,68.48,268.58 30.37,64.39,268.47 33.09,60.17,268.37 35.59,56.64,268.27"/>
    </edge>
    <edge id=":NODE_21_0" function="internal">
        <lane id=":NODE_21_0_0" index="0" speed="5.00" length="11.57" width="4.38" shape="43.26,45.38,267.94 46.00,47.09,268.00 48.12,48.59,268.04 50.33,49.88,268.08 53.34,50.91,268.14"/>
    </edge>
    <edge id=":NODE_21_1" function="internal">
        <lane id=":NODE_21_1_0" index="0" speed="5.00" length="13.25" width="4.38" shape="40.62,52.62,268.16 43.27,51.15,268.15 46.27,50.38,268.15 49.63,50.30,268.14 53.34,50.91,268.14"/>
    </edge>
    <edge id=":NODE_22_0" function="internal">
        <lane id=":NODE_22_0_0" index="0" speed="6.00" length="17.48" width="3.46" shape="72.28,82.55,270.23 68.62,83.38,270.25 65.49,85.62,270.28 62.90,89.24,270.31 60.85,94.26,270.34"/>
    </edge>
    <edge id=":NODE_22_1" function="internal">
        <lane id=":NODE_22_1_0" index="0" speed="5.50" length="19.58" width="4.38" shape="72.28,82.55,270.23 68.02,83.63,270.25 63.13,85.86,270.28 58.26,88.14,270.31 54.00,89.36,270.33"/>
    </edge>
    <edge id=":NODE_22_2" function="internal">
        <lane id=":NODE_22_2_0" index="0" speed="5.50" length="18.55" width="3.46" shape="68.04,77.18,270.25 66.65,81.23,270.27 64.58,85.76,270.30 62.44,90.27,270.32 60.85,94.26,270.34"/>
    </edge>
    <edge id=":NODE_22_3" function="internal">
        <lane id=":NODE_22_3_0" index="0" speed="5.00" length="20.03" width="4.38" shape="68.04,77.18,270.25 66.18,82.15,270.27 63.22,85.83,270.29 59.16,88.24,270.31 54.00,89.36,270.33"/>
    </edge>
    <edge id=":NODE_23_0" function="internal">
        <lane id=":NODE_23_0_0" index="0" speed="5.50" length="30.30" width="3.27" shape="17.26,213.76,272.01 17.01,207.62,271.95 16.55,198.62,271.86 15.97,189.63,271.78 15.39,183.52,271.72"/>
    </edge>
    <edge id=":NODE_23_1" function="internal">
        <lane id=":NODE_23_1_0" index="0" speed="6.00" length="9.16" width="3.46" shape="17.26,213.76,272.01 17.58,205.49,271.95 17.79,204.63,271.95"/>
    </edge>
    <edge id=":NODE_23_2" function="internal">
        <lane id=":NODE_23_2_0" index="0" speed="5.50" length="7.52" width="3.46" shape="17.26,213.76,272.01 17.82,206.72,271.95 17.93,206.28,271.95"/>
    </edge>
    <edge id=":NODE_23_8" function="internal">
        <lane id=":NODE_23_8_0" index="0" speed="6.00" length="13.81" width="3.46" shape="17.79,204.63,271.95 19.07,199.53,271.91 21.72,195.88,271.88 25.54,194.55,271.85"/>
    </edge>
    <edge id=":NODE_23_9" function="internal">
        <lane id=":NODE_23_9_0" index="0" speed="5.50" length="17.90" width="3.46" shape="17.93,206.28,271.95 19.61,199.18,271.89 22.27,193.16,271.83 25.44,190.68,271.80"/>
    </edge>
    <edge id=":NODE_23_3" function="internal">
        <lane id=":NODE_23_3_0" index="0" speed="5.50" length="9.87" width="3.27" shape="26.35,206.94,271.92 23.93,207.49,271.94 22.20,208.80,271.96 21.18,210.90,271.98 20.85,213.76,272.01"/>
    </edge>
    <edge id=":NODE_23_4" function="internal">
        <lane id=":NODE_23_4_0" index="0" speed="5.00" length="23.78" width="3.27" shape="26.18,203.88,271.92 23.02,201.88,271.89 19.76,196.65,271.84 17.01,189.95,271.78 15.39,183.52,271.72"/>
    </edge>
    <edge id=":NODE_23_5" function="internal">
        <lane id=":NODE_23_5_0" index="0" speed="5.50" length="14.63" width="3.46" shape="18.44,183.07,271.71 19.51,188.17,271.76 21.05,191.79,271.80 23.06,193.91,271.83 25.54,194.55,271.85"/>
    </edge>
    <edge id=":NODE_23_6" function="internal">
        <lane id=":NODE_23_6_0" index="0" speed="5.00" length="11.43" width="3.46" shape="18.44,183.07,271.71 19.29,186.43,271.74 20.74,188.81,271.76 22.79,190.23,271.78 25.44,190.68,271.80"/>
    </edge>
    <edge id=":NODE_23_7" function="internal">
        <lane id=":NODE_23_7_0" index="0" speed="5.50" length="30.79" width="3.27" shape="18.44,183.07,271.71 19.11,189.25,271.77 19.90,198.40,271.86 20.56,207.55,271.95 20.85,213.76,272.01"/>
    </edge>
    <edge id=":NODE_24_0" function="internal">
        <lane id=":NODE_24_0_0" index="0" speed="5.00" length="20.91" width="3.27" shape="10.42,149.89,271.44 7.11,129.24,271.43"/>
    </edge>
    <edge id=":NODE_24_1" function="internal">
        <lane id=":NODE_24_1_0" index="0" speed="5.00" length="5.21" width="3.46" shape="10.42,149.89,271.44 10.28,144.68,271.44"/>
    </edge>
    <edge id=":NODE_24_6" function="internal">
        <lane id=":NODE_24_6_0" index="0" speed="5.00" length="13.91" width="3.46" shape="10.28,144.68,271.44 10.27,144.12,271.44 11.76,139.95,271.43 14.89,137.38,271.43 19.66,136.41,271.43"/>
    </edge>
    <edge id=":NODE_24_2" function="internal">
        <lane id=":NODE_24_2_0" index="0" speed="5.00" length="13.00" width="3.27" shape="19.78,140.10,271.43 16.61,140.80,271.43 14.53,142.58,271.43 13.54,145.46,271.44 13.64,149.43,271.44"/>
    </edge>
    <edge id=":NODE_24_3" function="internal">
        <lane id=":NODE_24_3_0" index="0" speed="5.00" length="18.49" width="3.27" shape="19.78,140.10,271.43 15.01,139.58,271.43 11.31,137.60,271.43 8.68,134.15,271.43 7.11,129.24,271.43"/>
    </edge>
    <edge id=":NODE_24_4" function="internal">
        <lane id=":NODE_24_4_0" index="0" speed="5.00" length="13.52" width="3.46" shape="10.16,128.68,271.51 11.34,132.15,271.49 13.31,134.60,271.47 16.09,136.02,271.45 19.66,136.41,271.43"/>
    </edge>
    <edge id=":NODE_24_5" function="internal">
        <lane id=":NODE_24_5_0" index="0" speed="5.00" length="21.04" width="3.27" shape="10.16,128.68,271.51 13.64,149.43,271.44"/>
    </edge>
    <edge id=":NODE_25_0" function="internal">
        <lane id=":NODE_25_0_0" index="0" speed="5.00" length="10.32" width="3.27" shape="10.90,87.01,268.89 8.43,87.54,268.91 6.72,88.93,268.93 5.78,91.20,268.96 5.61,94.33,268.99"/>
    </edge>
    <edge id=":NODE_25_1" function="internal">
        <lane id=":NODE_25_1_0" index="0" speed="5.00" length="12.80" width="3.09" shape="4.51,68.21,268.59 5.04,72.45,268.64 6.26,75.47,268.68 8.17,77.27,268.71 10.75,77.83,268.74"/>
    </edge>
    <edge id=":NODE_25_2" function="internal">