<?xml version="1.0" encoding="UTF-8"?>

<!-- generated on 2023-04-20 23:22:54 by Eclipse SUMO netedit Version v1_13_0+1391-e3705e540b5
-->

<routes xmlns:xsi="http://www.w3.org/2001/XMLSchema-instance" xsi:noNamespaceSchemaLocation="http://sumo.dlr.de/xsd/routes_file.xsd">
    <!-- VTypes -->
    <vType id="IDM_waymo_motion" length="5.00" width="1.85" minGap="3.28" maxSpeed="5.00" carFollowModel="IDM" accel="1.84" decel="4.0" tau="1.17" emergencyDecel="9.0" lcAccelLat="20000.0" latAlignment="center" lcSublane="1" lcSpeedGain="0" lcKeepRight="0" lcCooperative="0"/>
    <!-- Routes -->
    <route id="r_0" edges="EG_5_2_1 EG_5_2_11 EG_7_4_1 EG_7_4_2 EG_8_1_1 EG_9_1_1 EG_21_1_1 EG_21_1_5 EG_20_1_11"/>
    <route id="r_1" edges="EG_22_1_1 EG_21_1_14 EG_21_1_18 EG_9_1_23 EG_17_23_1 EG_13_1_1 EG_7_1_1 EG_7_1_2 EG_5_1_1"/>
    <route id="r_10" edges="EG_5_2_1 EG_5_2_11 EG_11_1_1 EG_16_1_5 EG_15_1_8 EG_15_1_10 EG_15_1_17 EG_23_1_1"/>
    <route id="r_11" edges="EG_23_2_1 EG_15_1_1 EG_15_1_2 EG_15_1_8 gneE2 EG_10_2_1 EG_4_1_20 EG_7_4_1 gneE8 EG_7_3_1 EG_6_3_1"/>
    <route id="r_12" edges="EG_27_2_1 gneE6 EG_27_3_1 EG_16_1_1 EG_11_2_1 EG_5_1_1"/>
    <route id="r_13" edges="EG_25_2_1 EG_25_2_7 EG_28_2_1 EG_14_2_1 EG_8_3_1 EG_8_23_12 EG_7_1_1 EG_7_1_2 EG_4_2_1 EG_4_2_3 EG_4_2_5 EG_34_1_16 EG_1_1_1"/>
    <route id="r_14" edges="EG_1_3_1 EG_34_1_24 EG_34_1_3 gneE0 EG_4_1_1 EG_10_1_1 EG_15_1_17 EG_15_1_1 EG_16_45_1 EG_16_23_1 EG_13_1_1 EG_6_4_1"/>
    <route id="r_15" edges="EG_24_1_1 EG_25_1_1 EG_29_1_1"/>
    <route id="r_16" edges="EG_22_1_1 EG_21_1_14 EG_21_1_18 EG_9_1_23 EG_28_1_1 EG_24_2_1"/>
    <route id="r_17" edges="EG_1_3_1 EG_34_1_24 EG_34_1_3 EG_34_1_6 EG_34_1_16 EG_1_1_1"/>
    <route id="r_18" edges="EG_22_1_1 EG_21_1_14 EG_18_1_1 EG_18_12_171 EG_14_1_1 EG_28_1_1 EG_25_1_1"/>
    <route id="r_19" edges="EG_23_2_1 EG_15_1_1 EG_16_45_1 EG_16_23_1 EG_17_1_1 EG_19_1_1 EG_21_1_5 EG_20_1_11"/>
    <route id="r_2" edges="EG_25_2_1 EG_20_1_1 EG_21_1_10 EG_21_1_14 EG_18_1_1 EG_18_12_171 EG_8_3_1 EG_8_23_12 EG_6_4_1"/>
    <route id="r_20" edges="EG_22_1_1 EG_21_1_14 EG_21_1_18 EG_21_1_1 EG_19_1_10 EG_25_2_7 EG_24_2_1"/>
    <route id="r_3" edges="EG_6_1_1 EG_12_1_1 gneE5 EG_12_2_1 EG_17_1_1 EG_19_1_1 EG_21_1_5 EG_20_1_11"/>
    <route id="r_4" edges="EG_27_2_1 EG_27_2_2 EG_13_1_1 EG_6_3_1"/>
    <route id="r_5" edges="EG_6_2_1 EG_8_1_1 EG_14_1_1 EG_17_23_1 EG_26_12_1"/>
    <route id="r_6" edges="EG_27_1_1 EG_17_1_1 EG_28_1_1 EG_24_2_1"/>
    <route id="r_7" edges="EG_24_1_1 EG_28_2_1 EG_14_2_1 EG_8_3_1 EG_8_23_12 EG_12_1_1 EG_12_1_2 EG_26_12_1"/>
    <route id="r_8" edges="EG_1_3_1 EG_34_1_24 EG_34_1_3 gneE0 EG_4_1_1 EG_10_1_1 EG_15_1_17 EG_23_1_1"/>
    <route id="r_9" edges="EG_23_2_1 EG_15_1_1 EG_16_45_1 EG_16_23_1 EG_26_12_1"/>
    <route id="r_21" edges="EG_1_3_1 EG_34_1_24 EG_34_1_3 gneE0 EG_4_1_1 EG_10_1_1 EG_15_1_17 EG_15_1_1 EG_16_45_1 EG_16_23_1 EG_17_1_1 EG_14_2_1 EG_9_1_1 EG_21_1_1 EG_21_1_5 EG_20_1_11 EG_29_1_1"/>
    <!-- <route id="r_CAV" edges="EG_35_1_14 EG_1_3_1 EG_34_1_24 EG_34_1_3 gneE0 EG_4_1_1 EG_10_1_1 EG_15_1_17 EG_15_1_1 EG_16_45_1 EG_16_23_1 EG_17_1_1 EG_14_2_1 EG_9_1_1 EG_21_1_1 EG_21_1_5 EG_20_1_11 EG_29_1_1"/> -->
    <route id="r_CAV" edges="EG_35_1_14 EG_1_3_1 EG_34_1_24 EG_34_1_3 EG_34_1_6 EG_34_1_16 EG_1_1_1"/>

    <route id="r_22" edges="EG_25_2_1 EG_20_1_1 EG_21_1_10 EG_21_1_14 EG_21_1_18 EG_21_1_1 EG_21_1_5 EG_20_1_11"/>
    <route id="r_23" edges="EG_22_1_1 EG_21_1_14 EG_21_1_18 EG_21_1_1 EG_21_1_5 EG_20_1_11"/>
    <route id="cav_route" edges="EG_1_3_1 EG_34_1_24 EG_34_1_3 gneE0 EG_4_1_1 EG_10_1_1 EG_15_1_17 EG_15_1_1 EG_16_45_1 EG_16_23_1 EG_17_1_1 EG_14_2_1 EG_9_1_1 EG_21_1_1 EG_21_1_5 EG_20_1_11 EG_29_1_1 EG_35_1_14"/>
    <!-- Vehicles, persons and containers (sorted by depart) -->
    <flow id="BV_0" type="IDM_waymo_motion" begin="0.00" departLane="best" route="r_0" period="exp(0.01)"/>
    <flow id="BV_1" type="IDM_waymo_motion" begin="0.00" departLane="best" route="r_1" period="exp(0.01)"/>
    <flow id="BV_10" type="IDM_waymo_motion" begin="0.00" departLane="best" route="r_10" period="exp(0.012)"/>
    <flow id="BV_11" type="IDM_waymo_motion" begin="0.00" departLane="best" route="r_11" period="exp(0.01)"/>
    <flow id="BV_12" type="IDM_waymo_motion" begin="0.00" departLane="best" route="r_12" period="exp(0.01)"/>
    <flow id="BV_13" type="IDM_waymo_motion" begin="0.00" departLane="best" route="r_13" period="exp(0.01)"/>
    <flow id="BV_14" type="IDM_waymo_motion" begin="0.00" departLane="best" route="r_14" period="exp(0.01)"/>
    <flow id="BV_15" type="IDM_waymo_motion" begin="0.00" departLane="best" route="r_15" period="exp(0.02)"/>
    <flow id="BV_16" type="IDM_waymo_motion" begin="0.00" departLane="best" route="r_16" period="exp(0.015)"/>
    <flow id="BV_17" type="IDM_waymo_motion" begin="0.00" departLane="best" route="r_17" period="exp(0.05)"/>
    <flow id="BV_21" type="IDM_waymo_motion" begin="0.00" departLane="best" arrivalLane="1" route="r_17" period="exp(0.05)"/>
    <flow id="BV_18" type="IDM_waymo_motion" begin="0.00" departLane="best" route="r_18" period="exp(0.01)"/>
    <flow id="BV_19" type="IDM_waymo_motion" begin="0.00" departLane="best" route="r_19" period="exp(0.015)"/>
    <flow id="BV_2" type="IDM_waymo_motion" begin="0.00" departLane="best" route="r_2" period="exp(0.03)"/>
    <flow id="BV_20" type="IDM_waymo_motion" begin="0.00" departLane="best" route="r_20" period="exp(0.035)"/>
    <flow id="BV_3" type="IDM_waymo_motion" begin="0.00" departLane="best" route="r_3" period="exp(0.01)"/>
    <flow id="BV_4" type="IDM_waymo_motion" begin="0.00" departLane="best" route="r_4" period="exp(0.01)"/>
    <flow id="BV_5" type="IDM_waymo_motion" begin="0.00" departLane="best" route="r_5" period="exp(0.01)"/>
    <flow id="BV_6" type="IDM_waymo_motion" begin="0.00" departLane="best" route="r_6" period="exp(0.01)"/>
    <flow id="BV_7" type="IDM_waymo_motion" begin="0.00" departLane="best" route="r_7" period="exp(0.01)"/>
    <flow id="BV_8" type="IDM_waymo_motion" begin="0.00" departLane="best" route="r_8" period="exp(0.055)"/>
    <flow id="BV_9" type="IDM_waymo_motion" begin="0.00" departLane="best" route="r_9" period="exp(0.015)"/>
    <flow id="BV_22" type="IDM_waymo_motion" begin="0.00" departLane="best" route="r_21" period="exp(0.01)"/>
    <flow id="BV_23" type="IDM_waymo_motion" begin="0.00" departLane="best" route="r_22" period="exp(0.03)"/>
    <flow id="BV_24" type="IDM_waymo_motion" begin="0.00" departLane="best" route="r_23" period="exp(0.03)"/>
</routes>
